ModelBased/DSS/MAR_LinesMV.dss
new line.MV3PMAR00 bus1=BUSMVMAR1.1.2.3 bus2=AFTERMETER.1.2.3 r1=0.00001 x1=0.00001 length=0.00001 units=m 
new line.MV3PMAR0 bus1=AFTERMETER.1.2.3 bus2=BUSMVMAR57.1.2.3 geometry=3FMV500CU_35EPR length=70.3618 units=m !1ph_basekV=19.9186 
new line.MV3PMAR1 bus1=BUSMVMAR3.1.2.3 bus2=BUSMVMAR2.1.2.3 geometry=3FMV477AAC3/0AAC_H length=176.9124 units=m !1ph_basekV=19.9186 
new line.MV3PMAR2 bus1=BUSMVMAR2.1.2.3 bus2=BUSMVMAR4.1.2.3 geometry=3FMV477AAC3/0AAC_H length=432.4073 units=m !1ph_basekV=19.9186 
new line.MV3PMAR3 bus1=BUSMVMAR5.1.2.3 bus2=BUSMVMAR3.1.2.3 geometry=3FMV477AAC3/0AAC_H length=381.2376 units=m !1ph_basekV=19.9186 
new line.MV1PMAR4 bus1=BUSMVMAR4.1 bus2=BUSMVMAR67.1 geometry=1FMV3/0AAC3/0AAC_M length=30.6439 units=m !1ph_basekV=19.9186 
new line.MV1PMAR5 bus1=BUSMVMAR67.1 bus2=BUSMVMAR68.1 geometry=1FMV3/0AAC3/0AAC_M length=0.3562 units=m !1ph_basekV=19.9186 
new line.MV1PMAR6 bus1=BUSMVMAR68.1 bus2=BUSMVMAR72.1 geometry=1FMV3/0AAC3/0AAC_M length=49.0909 units=m !1ph_basekV=19.9186 
new line.MV1PMAR7 bus1=BUSMVMAR69.2 bus2=BUSMVMAR70.2 geometry=1FMV4/0AAC4/0AAC_M length=1.9997 units=m !1ph_basekV=19.9186 
new line.MV1PMAR8 bus1=BUSMVMAR75.2 bus2=BUSMVMAR69.2 geometry=1FMV4/0AAC4/0AAC_M length=96.0736 units=m !1ph_basekV=19.9186 
new line.MV1PMAR9 bus1=BUSMVMAR70.2 bus2=BUSMVMAR71.2 geometry=1FMV4/0AAC4/0AAC_M length=1.9999 units=m !1ph_basekV=19.9186 
new line.MV1PMAR10 bus1=BUSMVMAR72.1 bus2=BUSMVMAR73.1 geometry=1FMV4/0AAC4/0AAC_M length=1.9946 units=m !1ph_basekV=19.9186 
new line.MV1PMAR11 bus1=BUSMVMAR72.1 bus2=BUSMVMAR81.1 geometry=1FMV3/0AAC3/0AAC_M length=46.3033 units=m !1ph_basekV=19.9186 
new line.MV1PMAR12 bus1=BUSMVMAR73.1 bus2=BUSMVMAR74.1 geometry=1FMV4/0AAC4/0AAC_M length=2.0050 units=m !1ph_basekV=19.9186 
new line.MV1PMAR13 bus1=BUSMVMAR75.2 bus2=BUSMVMAR76.2 geometry=1FMV4/0AAC4/0AAC_M length=1.9993 units=m !1ph_basekV=19.9186 
new line.MV1PMAR14 bus1=BUSMVMAR78.2 bus2=BUSMVMAR75.2 geometry=1FMV4/0AAC4/0AAC_M length=25.6826 units=m !1ph_basekV=19.9186 
new line.MV1PMAR15 bus1=BUSMVMAR76.2 bus2=BUSMVMAR77.2 geometry=1FMV4/0AAC4/0AAC_M length=2.0004 units=m !1ph_basekV=19.9186 
new line.MV1PMAR16 bus1=BUSMVMAR79.2 bus2=BUSMVMAR78.2 geometry=1FMV4/0AAC4/0AAC_M length=61.4001 units=m !1ph_basekV=19.9186 
new line.MV1PMAR17 bus1=BUSMVMAR80.2 bus2=BUSMVMAR79.2 geometry=1FMV4/0AAC4/0AAC_M length=85.7482 units=m !1ph_basekV=19.9186 
new line.MV1PMAR18 bus1=BUSMVMAR85.2 bus2=BUSMVMAR80.2 geometry=1FMV4/0AAC4/0AAC_M length=45.0244 units=m !1ph_basekV=19.9186 
new line.MV1PMAR19 bus1=BUSMVMAR81.1 bus2=BUSMVMAR82.1 geometry=1FMV3/0AAC3/0AAC_M length=16.6996 units=m !1ph_basekV=19.9186 
new line.MV1PMAR20 bus1=BUSMVMAR81.1 bus2=BUSMVMAR83.1 geometry=1FMV3/0AAC3/0AAC_M length=99.5456 units=m !1ph_basekV=19.9186 
new line.MV1PMAR21 bus1=BUSMVMAR83.1 bus2=BUSMVMAR84.1 geometry=1FMV4/0AAC4/0AAC_M length=1.9912 units=m !1ph_basekV=19.9186 
new line.MV1PMAR22 bus1=BUSMVMAR84.1 bus2=BUSMVMAR86.1 geometry=1FMV4/0AAC4/0AAC_M length=2.0084 units=m !1ph_basekV=19.9186 
new line.MV1PMAR23 bus1=BUSMVMAR87.2 bus2=BUSMVMAR85.2 geometry=1FMV4/0AAC4/0AAC_M length=9.0829 units=m !1ph_basekV=19.9186 
new line.MV1PMAR24 bus1=BUSMVMAR88.2 bus2=BUSMVMAR87.2 geometry=1FMV4/0AAC4/0AAC_M length=50.8695 units=m !1ph_basekV=19.9186 
new line.MV1PMAR25 bus1=BUSMVMAR88.2 bus2=BUSMVMAR89.2 geometry=1FMV4/0AAC4/0AAC_M length=1.7490 units=m !1ph_basekV=19.9186 
new line.MV1PMAR26 bus1=BUSMVMAR91.2 bus2=BUSMVMAR88.2 geometry=1FMV4/0AAC4/0AAC_M length=123.1495 units=m !1ph_basekV=19.9186 
new line.MV1PMAR27 bus1=BUSMVMAR89.2 bus2=BUSMVMAR90.2 geometry=1FMV4/0AAC4/0AAC_M length=2.0001 units=m !1ph_basekV=19.9186 
new line.MV3PMAR28 bus1=BUSMVMAR5.1.2.3 bus2=BUSMVMAR8.1.2.3 geometry=3FMV477AAC3/0AAC_H length=178.5138 units=m !1ph_basekV=19.9186 
new line.MV3PMAR29 bus1=BUSMVMAR23.1.2.3 bus2=BUSMVMAR5.1.2.3 geometry=3FMV477AAC3/0AAC_H length=139.9945 units=m !1ph_basekV=19.9186 
new line.MV1PMAR30 bus1=BUSMVMAR8.2 bus2=BUSMVMAR91.2 geometry=1FMV3/0AAC3/0AAC_M length=24.1476 units=m !1ph_basekV=19.9186 
new line.MV3PMAR31 bus1=BUSMVMAR6.1.2.3 bus2=BUSMVMAR7.1.2.3 geometry=3FMV477AAC3/0AAC_H length=33.5614 units=m !1ph_basekV=19.9186 
new line.MV3PMAR32 bus1=BUSMVMAR13.1.2.3 bus2=BUSMVMAR6.1.2.3 geometry=3FMV477AAC3/0AAC_H length=55.8541 units=m !1ph_basekV=19.9186 
new line.MV3PMAR33 bus1=BUSMVMAR7.1.2.3 bus2=BUSMVMAR29.1.2.3 geometry=3FMV477AAC3/0AAC_H length=174.6907 units=m !1ph_basekV=19.9186 
new line.MV3PMAR34 bus1=BUSMVMAR8.1.2.3 bus2=BUSMVMAR9.1.2.3 geometry=3FMV477AAC3/0AAC_H length=0.8948 units=m !1ph_basekV=19.9186 
new line.MV3PMAR35 bus1=BUSMVMAR9.1.2.3 bus2=BUSMVMAR14.1.2.3 geometry=3FMV477AAC3/0AAC_H length=93.6709 units=m !1ph_basekV=19.9186 
new line.MV3PMAR36 bus1=BUSMVMAR10.1.2.3 bus2=BUSMVMAR11.1.2.3 geometry=3FMV477AAC3/0AAC_H length=1.2587 units=m !1ph_basekV=19.9186 
new line.MV3PMAR37 bus1=BUSMVMAR15.1.2.3 bus2=BUSMVMAR10.1.2.3 geometry=3FMV477AAC3/0AAC_H length=58.8524 units=m !1ph_basekV=19.9186 
new line.MV3PMAR38 bus1=BUSMVMAR11.1.2.3 bus2=BUSMVMAR16.1.2.3 geometry=3FMV477AAC3/0AAC_H length=53.5286 units=m !1ph_basekV=19.9186 
new line.MV3PMAR39 bus1=BUSMVMAR12.1.2.3 bus2=BUSMVMAR13.1.2.3 geometry=3FMV477AAC3/0AAC_H length=47.0182 units=m !1ph_basekV=19.9186 
new line.MV3PMAR40 bus1=BUSMVMAR17.1.2.3 bus2=BUSMVMAR12.1.2.3 geometry=3FMV477AAC3/0AAC_H length=65.3931 units=m !1ph_basekV=19.9186 
new line.MV3PMAR41 bus1=BUSMVMAR14.1.2.3 bus2=BUSMVMAR24.1.2.3 geometry=3FMV477AAC3/0AAC_H length=105.2099 units=m !1ph_basekV=19.9186 
new line.MV3PMAR42 bus1=BUSMVMAR19.1.2.3 bus2=BUSMVMAR15.1.2.3 geometry=3FMV477AAC3/0AAC_H length=36.1050 units=m !1ph_basekV=19.9186 
new line.MV3PMAR43 bus1=BUSMVMAR16.1.2.3 bus2=BUSMVMAR17.1.2.3 geometry=3FMV477AAC3/0AAC_H length=244.1570 units=m !1ph_basekV=19.9186 
new line.MV3PMAR44 bus1=BUSMVMAR18.1.2.3 bus2=BUSMVMAR19.1.2.3 geometry=3FMV477AAC3/0AAC_H length=158.6778 units=m !1ph_basekV=19.9186 
new line.MV3PMAR45 bus1=BUSMVMAR22.1.2.3 bus2=BUSMVMAR18.1.2.3 geometry=3FMV477AAC3/0AAC_H length=58.8791 units=m !1ph_basekV=19.9186 
new line.MV3PMAR46 bus1=BUSMVMAR20.1.2.3 bus2=BUSMVMAR21.1.2.3 geometry=3FMV477AAC3/0AAC_H length=25.3388 units=m !1ph_basekV=19.9186 
new line.MV3PMAR47 bus1=BUSMVMAR33.1.2.3 bus2=BUSMVMAR20.1.2.3 geometry=3FMV477AAC3/0AAC_H length=91.3109 units=m !1ph_basekV=19.9186 
new line.MV3PMAR48 bus1=BUSMVMAR21.1.2.3 bus2=BUSMVMAR26.1.2.3 geometry=3FMV477AAC3/0AAC_H length=52.7676 units=m !1ph_basekV=19.9186 
new line.MV3PMAR49 bus1=BUSMVMAR25.1.2.3 bus2=BUSMVMAR22.1.2.3 geometry=3FMV477AAC3/0AAC_H length=8.7157 units=m !1ph_basekV=19.9186 
new line.MV3PMAR50 bus1=BUSMVMAR56.1.2.3 bus2=BUSMVMAR23.1.2.3 geometry=3FMV477AAC3/0AAC_H length=296.5415 units=m !1ph_basekV=19.9186 
new line.MV3PMAR51 bus1=BUSMVMAR24.1.2.3 bus2=BUSMVMAR31.1.2.3 geometry=3FMV477AAC3/0AAC_H length=45.5070 units=m !1ph_basekV=19.9186 
new line.MV3PMAR52 bus1=BUSMVMAR40.1.2.3 bus2=BUSMVMAR25.1.2.3 geometry=3FMV477AAC3/0AAC_H length=167.1130 units=m !1ph_basekV=19.9186 
new line.MV3PMAR53 bus1=BUSMVMAR26.1.2.3 bus2=BUSMVMAR32.1.2.3 geometry=3FMV477AAC3/0AAC_H length=38.3140 units=m !1ph_basekV=19.9186 
new line.MV3PMAR54 bus1=BUSMVMAR27.1.2.3 bus2=BUSMVMAR28.1.2.3 geometry=3FMV477AAC3/0AAC_H length=94.6425 units=m !1ph_basekV=19.9186 
new line.MV3PMAR55 bus1=BUSMVMAR31.1.2.3 bus2=BUSMVMAR27.1.2.3 geometry=3FMV477AAC3/0AAC_H length=107.9899 units=m !1ph_basekV=19.9186 
new line.MV3PMAR56 bus1=BUSMVMAR28.1.2.3 bus2=BUSMVMAR30.1.2.3 geometry=3FMV477AAC3/0AAC_H length=72.7213 units=m !1ph_basekV=19.9186 
new line.MV3PMAR57 bus1=BUSMVMAR29.1.2.3 bus2=BUSMVMAR44.1.2.3 geometry=3FMV477AAC3/0AAC_H length=108.0451 units=m !1ph_basekV=19.9186 
new line.MV3PMAR58 bus1=BUSMVMAR30.1.2.3 bus2=BUSMVMAR34.1.2.3 geometry=3FMV477AAC3/0AAC_H length=56.9398 units=m !1ph_basekV=19.9186 
new line.MV3PMAR59 bus1=BUSMVMAR32.1.2.3 bus2=BUSMVMAR38.1.2.3 geometry=3FMV477AAC3/0AAC_H length=95.4798 units=m !1ph_basekV=19.9186 
new line.MV3PMAR60 bus1=BUSMVMAR39.1.2.3 bus2=BUSMVMAR33.1.2.3 geometry=3FMV477AAC3/0AAC_H length=63.0299 units=m !1ph_basekV=19.9186 
new line.MV3PMAR61 bus1=BUSMVMAR34.1.2.3 bus2=BUSMVMAR35.1.2.3 geometry=3FMV477AAC3/0AAC_H length=0.8221 units=m !1ph_basekV=19.9186 
new line.MV3PMAR62 bus1=BUSMVMAR35.1.2.3 bus2=BUSMVMAR36.1.2.3 geometry=3FMV477AAC3/0AAC_H length=36.3242 units=m !1ph_basekV=19.9186 
new line.MV3PMAR63 bus1=BUSMVMAR36.1.2.3 bus2=BUSMVMAR37.1.2.3 geometry=3FMV477AAC3/0AAC_H length=0.3532 units=m !1ph_basekV=19.9186 
new line.MV3PMAR64 bus1=BUSMVMAR37.1.2.3 bus2=BUSMVMAR52.1.2.3 geometry=3FMV477AAC3/0AAC_H length=274.1110 units=m !1ph_basekV=19.9186 
new line.MV3PMAR65 bus1=BUSMVMAR38.1.2.3 bus2=BUSMVMAR42.1.2.3 geometry=3FMV477AAC3/0AAC_H length=12.9418 units=m !1ph_basekV=19.9186 
new line.MV3PMAR66 bus1=BUSMVMAR41.1.2.3 bus2=BUSMVMAR39.1.2.3 geometry=3FMV477AAC3/0AAC_H length=3.8213 units=m !1ph_basekV=19.9186 
new line.MV3PMAR67 bus1=BUSMVMAR48.1.2.3 bus2=BUSMVMAR40.1.2.3 geometry=3FMV477AAC3/0AAC_H length=164.3604 units=m !1ph_basekV=19.9186 
new line.MV3PMAR68 bus1=BUSMVMAR45.1.2.3 bus2=BUSMVMAR41.1.2.3 geometry=3FMV477AAC3/0AAC_H length=55.0513 units=m !1ph_basekV=19.9186 
new line.MV3PMAR69 bus1=BUSMVMAR42.1.2.3 bus2=BUSMVMAR43.1.2.3 geometry=3FMV477AAC3/0AAC_H length=19.4485 units=m !1ph_basekV=19.9186 
new line.MV3PMAR70 bus1=BUSMVMAR43.1.2.3 bus2=BUSMVMAR46.1.2.3 geometry=3FMV477AAC3/0AAC_H length=52.1185 units=m !1ph_basekV=19.9186 
new line.MV3PMAR71 bus1=BUSMVMAR44.1.2.3 bus2=BUSMVMAR55.1.2.3 geometry=3FMV477AAC3/0AAC_H length=135.4305 units=m !1ph_basekV=19.9186 
new line.MV3PMAR72 bus1=BUSMVMAR51.1.2.3 bus2=BUSMVMAR45.1.2.3 geometry=3FMV477AAC3/0AAC_H length=93.8403 units=m !1ph_basekV=19.9186 
new line.MV3PMAR73 bus1=BUSMVMAR46.1.2.3 bus2=BUSMVMAR47.1.2.3 geometry=3FMV477AAC3/0AAC_H length=30.9851 units=m !1ph_basekV=19.9186 
new line.MV3PMAR74 bus1=BUSMVMAR47.1.2.3 bus2=BUSMVMAR50.1.2.3 geometry=3FMV477AAC3/0AAC_H length=111.9901 units=m !1ph_basekV=19.9186 
new line.MV3PMAR75 bus1=BUSMVMAR49.1.2.3 bus2=BUSMVMAR48.1.2.3 geometry=3FMV477AAC3/0AAC_H length=8.3946 units=m !1ph_basekV=19.9186 
new line.MV3PMAR76 bus1=BUSMVMAR50.1.2.3 bus2=BUSMVMAR49.1.2.3 geometry=3FMV477AAC3/0AAC_H length=44.8356 units=m !1ph_basekV=19.9186 
new line.MV3PMAR77 bus1=BUSMVMAR53.1.2.3 bus2=BUSMVMAR51.1.2.3 geometry=3FMV477AAC3/0AAC_H length=26.2352 units=m !1ph_basekV=19.9186 
new line.MV3PMAR78 bus1=BUSMVMAR52.1.2.3 bus2=BUSMVMAR54.1.2.3 geometry=3FMV477AAC3/0AAC_H length=54.9665 units=m !1ph_basekV=19.9186 
new line.MV3PMAR79 bus1=BUSMVMAR54.1.2.3 bus2=BUSMVMAR53.1.2.3 geometry=3FMV477AAC3/0AAC_H length=169.9089 units=m !1ph_basekV=19.9186 
new line.MV3PMAR80 bus1=BUSMVMAR55.1.2.3 bus2=BUSMVMAR63.1.2.3 geometry=3FMV477AAC3/0AAC_H length=121.1051 units=m !1ph_basekV=19.9186 
new line.MV1PMAR81 bus1=BUSMVMAR92.2 bus2=BUSMVMAR93.2 geometry=1FMV4/0AAC4/0AAC_M length=5.3091 units=m !1ph_basekV=19.9186 
new line.MV1PMAR82 bus1=BUSMVMAR95.2 bus2=BUSMVMAR92.2 geometry=1FMV3/0AAC3/0AAC_M length=12.6021 units=m !1ph_basekV=19.9186 
new line.MV1PMAR83 bus1=BUSMVMAR93.2 bus2=BUSMVMAR94.2 geometry=1FMV4/0AAC4/0AAC_M length=3.9235 units=m !1ph_basekV=19.9186 
new line.MV1PMAR84 bus1=BUSMVMAR95.2 bus2=BUSMVMAR96.2 geometry=1FMV3/0AAC3/0AAC_M length=58.2619 units=m !1ph_basekV=19.9186 
new line.MV1PMAR85 bus1=BUSMVMAR107.2 bus2=BUSMVMAR95.2 geometry=1FMV3/0AAC3/0AAC_M length=124.3490 units=m !1ph_basekV=19.9186 
new line.MV3PMAR86 bus1=BUSMVMAR57.1.2.3 bus2=BUSMVMAR56.1.2.3 geometry=3FMV477AAC3/0AAC_H length=42.5906 units=m !1ph_basekV=19.9186 
new line.MV1PMAR87 bus1=BUSMVMAR97.2 bus2=BUSMVMAR98.2 geometry=1FMV3/0AAC3/0AAC_M length=15.5392 units=m !1ph_basekV=19.9186 
new line.MV1PMAR88 bus1=BUSMVMAR108.2 bus2=BUSMVMAR97.2 geometry=1FMV3/0AAC3/0AAC_M length=66.4525 units=m !1ph_basekV=19.9186 
new line.MV1PMAR89 bus1=BUSMVMAR97.2 bus2=BUSMVMAR104.2 geometry=1FMV3/0AAC3/0AAC_M length=8.8185 units=m !1ph_basekV=19.9186 
new line.MV1PMAR90 bus1=BUSMVMAR99.2 bus2=BUSMVMAR100.2 geometry=1FMV3/0AAC3/0AAC_M length=4.2977 units=m !1ph_basekV=19.9186 
new line.MV1PMAR91 bus1=BUSMVMAR101.2 bus2=BUSMVMAR99.2 geometry=1FMV4/0AAC4/0AAC_M length=5.0526 units=m !1ph_basekV=19.9186 
new line.MV1PMAR92 bus1=BUSMVMAR100.2 bus2=BUSMVMAR108.2 geometry=1FMV3/0AAC3/0AAC_M length=177.1744 units=m !1ph_basekV=19.9186 
new line.MV1PMAR93 bus1=BUSMVMAR102.2 bus2=BUSMVMAR101.2 geometry=1FMV4/0AAC4/0AAC_M length=41.1325 units=m !1ph_basekV=19.9186 
new line.MV1PMAR94 bus1=BUSMVMAR103.2 bus2=BUSMVMAR102.2 geometry=1FMV4/0AAC4/0AAC_M length=47.4930 units=m !1ph_basekV=19.9186 
new line.MV3PMAR95 bus1=BUSMVMAR58.1.2.3 bus2=BUSMVMAR59.1.2.3 geometry=3FMV477AAC3/0AAC_H length=1.6205 units=m !1ph_basekV=19.9186 
new line.MV3PMAR96 bus1=BUSMVMAR66.1.2.3 bus2=BUSMVMAR58.1.2.3 geometry=3FMV477AAC3/0AAC_H length=25.6448 units=m !1ph_basekV=19.9186 
new line.MV3PMAR97 bus1=BUSMVMAR59.1.2.3 bus2=BUSMVMAR60.1.2.3 geometry=3FMV477AAC3/0AAC_H length=46.2021 units=m !1ph_basekV=19.9186 
new line.MV1PMAR98 bus1=BUSMVMAR60.2 bus2=BUSMVMAR103.2 geometry=1FMV4/0AAC4/0AAC_M length=2.9138 units=m !1ph_basekV=19.9186 
new line.MV1PMAR99 bus1=BUSMVMAR104.2 bus2=BUSMVMAR105.2 geometry=1FMV4/0AAC4/0AAC_M length=1.0834 units=m !1ph_basekV=19.9186 
new line.MV1PMAR100 bus1=BUSMVMAR104.2 bus2=BUSMVMAR107.2 geometry=1FMV3/0AAC3/0AAC_M length=81.2756 units=m !1ph_basekV=19.9186 
new line.MV1PMAR101 bus1=BUSMVMAR105.2 bus2=BUSMVMAR106.2 geometry=1FMV4/0AAC4/0AAC_M length=1.3500 units=m !1ph_basekV=19.9186 
new line.MV3PMAR102 bus1=BUSMVMAR61.1.2.3 bus2=BUSMVMAR62.1.2.3 geometry=3FMV477AAC3/0AAC_H length=30.4888 units=m !1ph_basekV=19.9186 
new line.MV3PMAR103 bus1=BUSMVMAR63.1.2.3 bus2=BUSMVMAR61.1.2.3 geometry=3FMV477AAC3/0AAC_H length=73.3447 units=m !1ph_basekV=19.9186 
new line.MV3PMAR104 bus1=BUSMVMAR62.1.2.3 bus2=BUSMVMAR64.1.2.3 geometry=3FMV477AAC3/0AAC_H length=49.7077 units=m !1ph_basekV=19.9186 
new line.MV1PMAR105 bus1=BUSMVMAR108.2 bus2=BUSMVMAR109.2 geometry=1FMV4/0AAC4/0AAC_M length=2.6693 units=m !1ph_basekV=19.9186 
new line.MV1PMAR106 bus1=BUSMVMAR109.2 bus2=BUSMVMAR110.2 geometry=1FMV4/0AAC4/0AAC_M length=3.5942 units=m !1ph_basekV=19.9186 
new line.MV3PMAR107 bus1=BUSMVMAR64.1.2.3 bus2=BUSMVMAR65.1.2.3 geometry=3FMV477AAC3/0AAC_H length=10.3884 units=m !1ph_basekV=19.9186 
new line.MV3PMAR108 bus1=BUSMVMAR65.1.2.3 bus2=BUSMVMAR66.1.2.3 geometry=3FMV477AAC3/0AAC_H length=11.0140 units=m !1ph_basekV=19.9186 
