ModelBased/DSS/MAR_ServicesLV.dss
new line.SRV1FMAR1 bus1=BUSLVMAR67.1.2 bus2=BUSLVMAR104.1.2 linecode=TRPX4AAC length=4.7765 units=m !1ph_basekV=0.12 Group=3 
new line.SRV1FMAR2 bus1=BUSLVMAR67.1.2 bus2=BUSLVMAR109.1.2 linecode=TRPX4AAC length=7.6123 units=m !1ph_basekV=0.12 Group=3 
new line.SRV1FMAR3 bus1=BUSLVMAR68.1.2 bus2=BUSLVMAR105.1.2 linecode=TRPX4AAC length=4.1480 units=m !1ph_basekV=0.12 Group=3 
new line.SRV1FMAR4 bus1=BUSLVMAR71.1.2 bus2=BUSLVMAR106.1.2 linecode=TRPX4AAC length=4.0905 units=m !1ph_basekV=0.12 Group=3 
new line.SRV1FMAR5 bus1=BUSLVMAR66.1.2 bus2=BUSLVMAR107.1.2 linecode=TRPX4AAC length=8.5734 units=m !1ph_basekV=0.12 Group=3 
new line.SRV1FMAR6 bus1=BUSLVMAR65.1.2 bus2=BUSLVMAR108.1.2 linecode=TRPX4AAC length=7.2070 units=m !1ph_basekV=0.12 Group=3 
new line.SRV1FMAR7 bus1=BUSLVMAR69.1.2 bus2=BUSLVMAR110.1.2 linecode=TRPX4AAC length=7.9597 units=m !1ph_basekV=0.12 Group=3 
new line.SRV1FMAR8 bus1=BUSLVMAR75.1.2 bus2=BUSLVMAR111.1.2 linecode=TRPX4AAC length=5.1904 units=m !1ph_basekV=0.12 Group=3 
new line.SRV1FMAR9 bus1=BUSLVMAR75.1.2 bus2=BUSLVMAR112.1.2 linecode=TRPX4AAC length=5.4229 units=m !1ph_basekV=0.12 Group=3 
new line.SRV1FMAR10 bus1=BUSLVMAR74.1.2 bus2=BUSLVMAR113.1.2 linecode=TRPX4AAC length=4.9197 units=m !1ph_basekV=0.12 Group=3 
new line.SRV1FMAR11 bus1=BUSLVMAR74.1.2 bus2=BUSLVMAR114.1.2 linecode=TRPX4AAC length=5.3581 units=m !1ph_basekV=0.12 Group=3 
new line.SRV1FMAR12 bus1=BUSLVMAR115.1.2 bus2=BUSLVMAR116.1.2 linecode=TRPX4AAC length=3.1150 units=m !1ph_basekV=0.12 Group=3 
new line.SRV1FMAR13 bus1=BUSLVMAR115.1.2 bus2=BUSLVMAR117.1.2 linecode=TRPX4AAC length=4.0946 units=m !1ph_basekV=0.12 Group=3 
new line.SRV1FMAR14 bus1=BUSLVMAR115.1.2 bus2=BUSLVMAR118.1.2 linecode=TRPX4AAC length=3.2702 units=m !1ph_basekV=0.12 Group=3 
new line.SRV1FMAR15 bus1=BUSLVMAR78.1.2 bus2=BUSLVMAR115.1.2 linecode=TRPX2AAC length=11.9331 units=m !1ph_basekV=0.12 Group=3 
new line.SRV1FMAR16 bus1=BUSLVMAR80.1.2 bus2=BUSLVMAR119.1.2 linecode=TRPX4AAC length=10.8912 units=m !1ph_basekV=0.12 Group=3 
new line.SRV1FMAR17 bus1=BUSLVMAR80.1.2 bus2=BUSLVMAR120.1.2 linecode=TRPX4AAC length=13.6241 units=m !1ph_basekV=0.12 Group=3 
new line.SRV1FMAR18 bus1=BUSLVMAR121.1.2 bus2=BUSLVMAR122.1.2 linecode=TRPX2AAC length=4.3864 units=m !1ph_basekV=0.12 Group=3 
new line.SRV1FMAR19 bus1=BUSLVMAR121.1.2 bus2=BUSLVMAR124.1.2 linecode=TRPX2AAC length=4.3939 units=m !1ph_basekV=0.12 Group=3 
new line.SRV1FMAR20 bus1=BUSLVMAR82.1.2 bus2=BUSLVMAR121.1.2 linecode=TRPX2AAC length=8.8971 units=m !1ph_basekV=0.12 Group=3 
new line.SRV1FMAR21 bus1=BUSLVMAR81.1.2 bus2=BUSLVMAR123.1.2 linecode=TRPX4AAC length=3.0628 units=m !1ph_basekV=0.12 Group=3 
new line.SRV1FMAR22 bus1=BUSLVMAR83.1.2 bus2=BUSLVMAR125.1.2 linecode=TRPX4AAC length=3.3933 units=m !1ph_basekV=0.12 Group=3 
new line.SRV1FMAR23 bus1=BUSLVMAR126.1.2 bus2=BUSLVMAR127.1.2 linecode=TRPX4AAC length=3.1570 units=m !1ph_basekV=0.12 Group=3 
new line.SRV1FMAR24 bus1=BUSLVMAR89.1.2 bus2=BUSLVMAR126.1.2 linecode=TRPX2AAC length=3.7876 units=m !1ph_basekV=0.12 Group=3 
new line.SRV1FMAR25 bus1=BUSLVMAR86.1.2 bus2=BUSLVMAR128.1.2 linecode=TRPX4AAC length=4.4272 units=m !1ph_basekV=0.12 Group=3 
new line.SRV1FMAR26 bus1=BUSLVMAR86.1.2 bus2=BUSLVMAR129.1.2 linecode=TRPX4AAC length=3.9605 units=m !1ph_basekV=0.12 Group=3 
new line.SRV1FMAR27 bus1=BUSLVMAR87.1.2 bus2=BUSLVMAR130.1.2 linecode=TRPX4AAC length=3.0035 units=m !1ph_basekV=0.12 Group=3 
new line.SRV1FMAR28 bus1=BUSLVMAR88.1.2 bus2=BUSLVMAR131.1.2 linecode=TRPX4AAC length=2.3106 units=m !1ph_basekV=0.12 Group=3 
new line.SRV1FMAR29 bus1=BUSLVMAR90.1.2 bus2=BUSLVMAR132.1.2 linecode=TRPX4AAC length=3.2492 units=m !1ph_basekV=0.12 Group=3 
new line.SRV1FMAR30 bus1=BUSLVMAR90.1.2 bus2=BUSLVMAR133.1.2 linecode=TRPX4AAC length=3.3073 units=m !1ph_basekV=0.12 Group=3 
new line.SRV1FMAR31 bus1=BUSLVMAR92.1.2 bus2=BUSLVMAR134.1.2 linecode=TRPX4AAC length=5.2138 units=m !1ph_basekV=0.12 Group=3 
new line.SRV1FMAR32 bus1=BUSLVMAR135.1.2 bus2=BUSLVMAR136.1.2 linecode=TRPX4AAC length=4.1552 units=m !1ph_basekV=0.12 Group=3 
new line.SRV1FMAR33 bus1=BUSLVMAR97.1.2 bus2=BUSLVMAR135.1.2 linecode=TRPX2AAC length=11.1104 units=m !1ph_basekV=0.12 Group=3 
new line.SRV1FMAR34 bus1=BUSLVMAR95.1.2 bus2=BUSLVMAR137.1.2 linecode=TRPX4AAC length=3.0690 units=m !1ph_basekV=0.12 Group=3 
new line.SRV1FMAR35 bus1=BUSLVMAR98.1.2 bus2=BUSLVMAR138.1.2 linecode=TRPX4AAC length=9.6647 units=m !1ph_basekV=0.12 Group=3 
new line.SRV1FMAR36 bus1=BUSLVMAR100.1.2 bus2=BUSLVMAR139.1.2 linecode=TRPX4AAC length=9.8115 units=m !1ph_basekV=0.12 Group=3 
new line.SRV1FMAR37 bus1=BUSLVMAR140.1.2 bus2=BUSLVMAR141.1.2 linecode=TRPX4AAC length=2.6503 units=m !1ph_basekV=0.12 Group=3 
new line.SRV1FMAR38 bus1=BUSLVMAR103.1.2 bus2=BUSLVMAR140.1.2 linecode=TRPX2AAC length=11.4384 units=m !1ph_basekV=0.12 Group=3 
new line.SRV1FMAR39 bus1=BUSLVMAR4.1.2 bus2=BUSLVMAR142.1.2 linecode=TRPX4AAC length=14.0366 units=m !1ph_basekV=0.12 Group=2 
new line.SRV1FMAR40 bus1=BUSLVMAR7.1.2 bus2=BUSLVMAR143.1.2 linecode=TRPX4AAC length=12.1560 units=m !1ph_basekV=0.12 Group=2 
new line.SRV1FMAR41 bus1=BUSLVMAR8.1.2 bus2=BUSLVMAR144.1.2 linecode=TRPX4AAC length=7.3049 units=m !1ph_basekV=0.12 Group=2 
new line.SRV1FMAR42 bus1=BUSLVMAR10.1.2 bus2=BUSLVMAR145.1.2 linecode=TRPX4AAC length=7.7199 units=m !1ph_basekV=0.12 Group=1 
new line.SRV1FMAR43 bus1=BUSLVMAR10.1.2 bus2=BUSLVMAR146.1.2 linecode=TRPX4AAC length=8.5086 units=m !1ph_basekV=0.12 Group=1 
new line.SRV1FMAR44 bus1=BUSLVMAR10.1.2 bus2=BUSLVMAR151.1.2 linecode=TRPX2AAC length=11.4023 units=m !1ph_basekV=0.12 Group=1 
new line.SRV1FMAR45 bus1=BUSLVMAR11.1.2 bus2=BUSLVMAR147.1.2 linecode=TRPX4AAC length=14.8680 units=m !1ph_basekV=0.12 Group=1 
new line.SRV1FMAR46 bus1=BUSLVMAR11.1.2 bus2=BUSLVMAR148.1.2 linecode=TRPX4AAC length=8.6157 units=m !1ph_basekV=0.12 Group=1 
new line.SRV1FMAR47 bus1=BUSLVMAR12.1.2 bus2=BUSLVMAR149.1.2 linecode=TRPX4AAC length=8.4710 units=m !1ph_basekV=0.12 Group=1 
new line.SRV1FMAR48 bus1=BUSLVMAR15.1.2 bus2=BUSLVMAR150.1.2 linecode=TRPX4AAC length=10.5856 units=m !1ph_basekV=0.12 Group=1 
new line.SRV1FMAR49 bus1=BUSLVMAR151.1.2 bus2=BUSLVMAR153.1.2 linecode=TRPX2AAC length=7.0594 units=m !1ph_basekV=0.12 Group=1 
new line.SRV1FMAR50 bus1=BUSLVMAR154.1.2 bus2=BUSLVMAR151.1.2 linecode=TRPX2AAC length=6.4273 units=m !1ph_basekV=0.12 Group=1 
new line.SRV1FMAR51 bus1=BUSLVMAR155.1.2 bus2=BUSLVMAR151.1.2 linecode=TRPX2AAC length=5.6482 units=m !1ph_basekV=0.12 Group=1 
new line.SRV1FMAR52 bus1=BUSLVMAR157.1.2 bus2=BUSLVMAR151.1.2 linecode=TRPX2AAC length=5.4927 units=m !1ph_basekV=0.12 Group=1 
new line.SRV1FMAR53 bus1=BUSLVMAR158.1.2 bus2=BUSLVMAR151.1.2 linecode=TRPX2AAC length=5.5142 units=m !1ph_basekV=0.12 Group=1 
new line.SRV1FMAR54 bus1=BUSLVMAR159.1.2 bus2=BUSLVMAR151.1.2 linecode=TRPX2AAC length=5.6237 units=m !1ph_basekV=0.12 Group=1 
new line.SRV1FMAR55 bus1=BUSLVMAR161.1.2 bus2=BUSLVMAR151.1.2 linecode=TRPX2AAC length=5.9275 units=m !1ph_basekV=0.12 Group=1 
new line.SRV1FMAR56 bus1=BUSLVMAR162.1.2 bus2=BUSLVMAR151.1.2 linecode=TRPX2AAC length=6.3185 units=m !1ph_basekV=0.12 Group=1 
new line.SRV1FMAR57 bus1=BUSLVMAR151.1.2 bus2=BUSLVMAR163.1.2 linecode=TRPX2AAC length=6.7234 units=m !1ph_basekV=0.12 Group=1 
new line.SRV1FMAR58 bus1=BUSLVMAR14.1.2 bus2=BUSLVMAR152.1.2 linecode=TRPX4AAC length=16.9903 units=m !1ph_basekV=0.12 Group=1 
new line.SRV1FMAR59 bus1=BUSLVMAR14.1.2 bus2=BUSLVMAR160.1.2 linecode=TRPX4AAC length=9.5844 units=m !1ph_basekV=0.12 Group=1 
new line.SRV1FMAR60 bus1=BUSLVMAR14.1.2 bus2=BUSLVMAR165.1.2 linecode=TRPX4AAC length=15.4646 units=m !1ph_basekV=0.12 Group=1 
new line.SRV1FMAR61 bus1=BUSLVMAR17.1.2 bus2=BUSLVMAR156.1.2 linecode=TRPX4AAC length=6.2130 units=m !1ph_basekV=0.12 Group=2 
new line.SRV1FMAR62 bus1=BUSLVMAR19.1.2 bus2=BUSLVMAR164.1.2 linecode=TRPX4AAC length=11.5475 units=m !1ph_basekV=0.12 Group=1 
new line.SRV1FMAR63 bus1=BUSLVMAR18.1.2 bus2=BUSLVMAR166.1.2 linecode=TRPX4AAC length=11.0491 units=m !1ph_basekV=0.12 Group=1 
new line.SRV1FMAR64 bus1=BUSLVMAR167.1.2 bus2=BUSLVMAR168.1.2 linecode=TRPX4AAC length=6.4800 units=m !1ph_basekV=0.12 Group=1 
new line.SRV1FMAR65 bus1=BUSLVMAR167.1.2 bus2=BUSLVMAR169.1.2 linecode=TRPX4AAC length=8.5066 units=m !1ph_basekV=0.12 Group=1 
new line.SRV1FMAR66 bus1=BUSLVMAR167.1.2 bus2=BUSLVMAR170.1.2 linecode=TRPX4AAC length=9.4485 units=m !1ph_basekV=0.12 Group=1 
new line.SRV1FMAR67 bus1=BUSLVMAR167.1.2 bus2=BUSLVMAR171.1.2 linecode=TRPX4AAC length=9.3317 units=m !1ph_basekV=0.12 Group=1 
new line.SRV1FMAR68 bus1=BUSLVMAR167.1.2 bus2=BUSLVMAR172.1.2 linecode=TRPX4AAC length=8.5434 units=m !1ph_basekV=0.12 Group=1 
new line.SRV1FMAR69 bus1=BUSLVMAR167.1.2 bus2=BUSLVMAR173.1.2 linecode=TRPX4AAC length=6.6479 units=m !1ph_basekV=0.12 Group=1 
new line.SRV1FMAR70 bus1=BUSLVMAR167.1.2 bus2=BUSLVMAR25.1.2 linecode=TRPX2AAC length=12.9778 units=m !1ph_basekV=0.12 Group=1 
new line.SRV1FMAR71 bus1=BUSLVMAR22.1.2 bus2=BUSLVMAR174.1.2 linecode=TRPX4AAC length=6.4288 units=m !1ph_basekV=0.12 Group=2 
new line.SRV1FMAR72 bus1=BUSLVMAR175.1.2 bus2=BUSLVMAR176.1.2 linecode=TRPX4AAC length=4.4101 units=m !1ph_basekV=0.12 Group=1 
new line.SRV1FMAR73 bus1=BUSLVMAR175.1.2 bus2=BUSLVMAR177.1.2 linecode=TRPX4AAC length=4.5736 units=m !1ph_basekV=0.12 Group=1 
new line.SRV1FMAR74 bus1=BUSLVMAR175.1.2 bus2=BUSLVMAR178.1.2 linecode=TRPX4AAC length=4.5264 units=m !1ph_basekV=0.12 Group=1 
new line.SRV1FMAR75 bus1=BUSLVMAR175.1.2 bus2=BUSLVMAR179.1.2 linecode=TRPX4AAC length=4.7074 units=m !1ph_basekV=0.12 Group=1 
new line.SRV1FMAR76 bus1=BUSLVMAR175.1.2 bus2=BUSLVMAR28.1.2 linecode=TRPX2AAC length=12.2854 units=m !1ph_basekV=0.12 Group=1 
new line.SRV1FMAR77 bus1=BUSLVMAR23.1.2 bus2=BUSLVMAR180.1.2 linecode=TRPX4AAC length=9.1446 units=m !1ph_basekV=0.12 Group=1 
new line.SRV1FMAR78 bus1=BUSLVMAR29.1.2 bus2=BUSLVMAR181.1.2 linecode=TRPX4AAC length=2.0262 units=m !1ph_basekV=0.12 Group=2 
new line.SRV1FMAR79 bus1=BUSLVMAR182.1.2 bus2=BUSLVMAR30.1.2 linecode=TRPX4AAC length=11.8920 units=m !1ph_basekV=0.12 Group=1 
new line.SRV1FMAR80 bus1=BUSLVMAR183.1.2 bus2=BUSLVMAR30.1.2 linecode=TRPX4AAC length=8.7847 units=m !1ph_basekV=0.12 Group=1 
new line.SRV1FMAR81 bus1=BUSLVMAR35.1.2 bus2=BUSLVMAR184.1.2 linecode=TRPX4AAC length=8.5853 units=m !1ph_basekV=0.12 Group=2 
new line.SRV1FMAR82 bus1=BUSLVMAR36.1.2 bus2=BUSLVMAR185.1.2 linecode=TRPX4AAC length=8.2567 units=m !1ph_basekV=0.12 Group=2 
new line.SRV1FMAR83 bus1=BUSLVMAR39.1.2 bus2=BUSLVMAR186.1.2 linecode=TRPX4AAC length=12.8831 units=m !1ph_basekV=0.12 Group=2 
new line.SRV1FMAR84 bus1=BUSLVMAR32.1.2 bus2=BUSLVMAR187.1.2 linecode=TRPX2AAC length=17.2431 units=m !1ph_basekV=0.12 Group=2 
new line.SRV1FMAR85 bus1=BUSLVMAR187.1.2 bus2=BUSLVMAR189.1.2 linecode=TRPX4AAC length=2.9001 units=m !1ph_basekV=0.12 Group=2 
new line.SRV1FMAR86 bus1=BUSLVMAR187.1.2 bus2=BUSLVMAR190.1.2 linecode=TRPX4AAC length=2.7518 units=m !1ph_basekV=0.12 Group=2 
new line.SRV1FMAR87 bus1=BUSLVMAR40.1.2 bus2=BUSLVMAR188.1.2 linecode=TRPX4AAC length=12.6576 units=m !1ph_basekV=0.12 Group=2 
new line.SRV1FMAR88 bus1=BUSLVMAR191.1.2 bus2=BUSLVMAR192.1.2 linecode=TRPX4AAC length=3.8843 units=m !1ph_basekV=0.12 Group=2 
new line.SRV1FMAR89 bus1=BUSLVMAR191.1.2 bus2=BUSLVMAR193.1.2 linecode=TRPX4AAC length=3.1925 units=m !1ph_basekV=0.12 Group=2 
new line.SRV1FMAR90 bus1=BUSLVMAR50.1.2 bus2=BUSLVMAR191.1.2 linecode=TRPX2AAC length=13.8930 units=m !1ph_basekV=0.12 Group=2 
new line.SRV1FMAR91 bus1=BUSLVMAR48.1.2 bus2=BUSLVMAR194.1.2 linecode=TRPX4AAC length=12.5035 units=m !1ph_basekV=0.12 Group=2 
new line.SRV1FMAR92 bus1=BUSLVMAR50.1.2 bus2=BUSLVMAR198.1.2 linecode=TRPX4AAC length=17.2821 units=m !1ph_basekV=0.12 Group=2 
new line.SRV1FMAR93 bus1=BUSLVMAR51.1.2 bus2=BUSLVMAR195.1.2 linecode=TRPX4AAC length=9.1361 units=m !1ph_basekV=0.12 Group=2 
new line.SRV1FMAR94 bus1=BUSLVMAR51.1.2 bus2=BUSLVMAR200.1.2 linecode=TRPX4AAC length=19.1099 units=m !1ph_basekV=0.12 Group=2 
new line.SRV1FMAR95 bus1=BUSLVMAR51.1.2 bus2=BUSLVMAR203.1.2 linecode=TRPX4AAC length=20.6148 units=m !1ph_basekV=0.12 Group=2 
new line.SRV1FMAR96 bus1=BUSLVMAR53.1.2 bus2=BUSLVMAR196.1.2 linecode=TRPX4AAC length=6.5557 units=m !1ph_basekV=0.12 Group=2 
new line.SRV1FMAR97 bus1=BUSLVMAR54.1.2 bus2=BUSLVMAR197.1.2 linecode=TRPX4AAC length=5.8442 units=m !1ph_basekV=0.12 Group=2 
new line.SRV1FMAR98 bus1=BUSLVMAR52.1.2 bus2=BUSLVMAR199.1.2 linecode=TRPX4AAC length=8.4644 units=m !1ph_basekV=0.12 Group=2 
new line.SRV1FMAR99 bus1=BUSLVMAR57.1.2 bus2=BUSLVMAR201.1.2 linecode=TRPX4AAC length=7.6954 units=m !1ph_basekV=0.12 Group=2 
new line.SRV1FMAR100 bus1=BUSLVMAR58.1.2 bus2=BUSLVMAR202.1.2 linecode=TRPX4AAC length=8.0965 units=m !1ph_basekV=0.12 Group=2 
new line.SRV1FMAR101 bus1=BUSLVMAR59.1.2 bus2=BUSLVMAR204.1.2 linecode=TRPX4AAC length=8.4117 units=m !1ph_basekV=0.12 Group=2 
new line.SRV1FMAR102 bus1=BUSLVMAR62.1.2 bus2=BUSLVMAR205.1.2 linecode=TRPX4AAC length=16.3195 units=m !1ph_basekV=0.12 Group=2 
